# CIF file generated by openbabel 3.0.0, see http://openbabel.sf.net
data_I
_chemical_name_common '96spc_hex_ice_h.pdb'
_cell_length_a 13.5212
_cell_length_b 15.6129
_cell_length_c 14.72
_cell_angle_alpha 90
_cell_angle_beta 90
_cell_angle_gamma 90
_space_group_name_H-M_alt 'P 1'
_space_group_name_Hall 'P 1'
loop_
    _symmetry_equiv_pos_as_xyz
    x,y,z
loop_
    _atom_site_label
    _atom_site_type_symbol
    _atom_site_fract_x
    _atom_site_fract_y
    _atom_site_fract_z
    _atom_site_occupancy
    O0      O    0.08357   0.08326   0.09375   1.000
    H1      H    0.08579   0.02626   0.11685   1.000
    H2      H    0.14200   0.11017   0.11685   1.000
    O3      O    0.24998   0.16653   0.15625   1.000
    H4      H    0.30840   0.14027   0.13315   1.000
    H5      H    0.25294   0.22417   0.13315   1.000
    O6      O    0.08357   0.08326   0.40625   1.000
    H7      H    0.08579   0.02626   0.38315   1.000
    H8      H    0.14200   0.11017   0.38315   1.000
    O9      O    0.24998   0.16653   0.34375   1.000
    H10     H    0.25294   0.16525   0.27853   1.000
    H11     H    0.30840   0.13707   0.36277   1.000
    O12     O    0.24998   0.33306   0.09375   1.000
    H13     H    0.19377   0.36380   0.11685   1.000
    H14     H    0.30619   0.36380   0.11685   1.000
    O15     O    0.08357   0.41696   0.15625   1.000
    H16     H    0.02441   0.39006   0.13315   1.000
    H17     H    0.08061   0.47397   0.13315   1.000
    O18     O    0.24998   0.33306   0.40625   1.000
    H19     H    0.19155   0.35996   0.38315   1.000
    H20     H    0.24702   0.27605   0.38315   1.000
    O21     O    0.08357   0.41696   0.34375   1.000
    H22     H    0.08357   0.41952   0.27853   1.000
    H23     H    0.08357   0.47525   0.36277   1.000
    O24     O    0.08357   0.58349   0.09375   1.000
    H25     H    0.08061   0.58477   0.02853   1.000
    H26     H    0.02441   0.61295   0.11277   1.000
    O27     O    0.24998   0.66676   0.15625   1.000
    H28     H    0.19155   0.63986   0.13315   1.000
    H29     H    0.24702   0.72376   0.13315   1.000
    O30     O    0.08357   0.58349   0.40625   1.000
    H31     H    0.02736   0.61424   0.38315   1.000
    H32     H    0.13904   0.61424   0.38315   1.000
    O33     O    0.24998   0.66676   0.34375   1.000
    H34     H    0.25294   0.66548   0.27853   1.000
    H35     H    0.30840   0.63729   0.36277   1.000
    O36     O    0.24998   0.83329   0.09375   1.000
    H37     H    0.25294   0.83457   0.02853   1.000
    H38     H    0.30840   0.86275   0.11277   1.000
    O39     O    0.08357   0.91655   0.15625   1.000
    H40     H    0.08579   0.91527   0.22147   1.000
    H41     H    0.14200   0.88709   0.13723   1.000
    O42     O    0.24998   0.83329   0.40625   1.000
    H43     H    0.25294   0.77628   0.38315   1.000
    H44     H    0.30840   0.86019   0.38315   1.000
    O45     O    0.08357   0.91655   0.34375   1.000
    H46     H    0.14200   0.89029   0.36685   1.000
    H47     H    0.08579   0.97419   0.36685   1.000
    O48     O    0.41638   0.08326   0.09375   1.000
    H49     H    0.41638   0.08070   0.02853   1.000
    H50     H    0.41638   0.02498   0.11277   1.000
    O51     O    0.58353   0.16653   0.15625   1.000
    H52     H    0.58057   0.16525   0.22147   1.000
    H53     H    0.52436   0.13707   0.13723   1.000
    O54     O    0.41638   0.08326   0.40625   1.000
    H55     H    0.41934   0.08455   0.47147   1.000
    H56     H    0.47555   0.11273   0.38723   1.000
    O57     O    0.58353   0.16653   0.34375   1.000
    H58     H    0.64195   0.14027   0.36685   1.000
    H59     H    0.58575   0.22417   0.36685   1.000
    O60     O    0.58353   0.33306   0.09375   1.000
    H61     H    0.58353   0.33050   0.02853   1.000
    H62     H    0.58353   0.27477   0.11277   1.000
    O63     O    0.41638   0.41696   0.15625   1.000
    H64     H    0.47555   0.39006   0.13315   1.000
    H65     H    0.41934   0.47397   0.13315   1.000
    O66     O    0.58353   0.33306   0.40625   1.000
    H67     H    0.58057   0.33498   0.47147   1.000
    H68     H    0.52436   0.36252   0.38723   1.000
    O69     O    0.41638   0.41696   0.34375   1.000
    H70     H    0.41416   0.41504   0.27853   1.000
    H71     H    0.35796   0.38750   0.36277   1.000
    O72     O    0.41638   0.58349   0.09375   1.000
    H73     H    0.36091   0.61424   0.11685   1.000
    H74     H    0.47259   0.61424   0.11685   1.000
    O75     O    0.58353   0.66676   0.15625   1.000
    H76     H    0.64195   0.63986   0.13315   1.000
    H77     H    0.58575   0.72376   0.13315   1.000
    O78     O    0.41638   0.58349   0.40625   1.000
    H79     H    0.41934   0.52585   0.38315   1.000
    H80     H    0.47555   0.60975   0.38315   1.000
    O81     O    0.58353   0.66676   0.34375   1.000
    H82     H    0.58575   0.66548   0.27853   1.000
    H83     H    0.64195   0.63729   0.36277   1.000
    O84     O    0.58353   0.83329   0.09375   1.000
    H85     H    0.52732   0.86403   0.11685   1.000
    H86     H    0.63900   0.86403   0.11685   1.000
    O87     O    0.41638   0.91655   0.15625   1.000
    H88     H    0.41638   0.91911   0.22147   1.000
    H89     H    0.41638   0.97548   0.13723   1.000
    O90     O    0.58353   0.83329   0.40625   1.000
    H91     H    0.58353   0.83072   0.47147   1.000
    H92     H    0.58353   0.77500   0.38723   1.000
    O93     O    0.41638   0.91655   0.34375   1.000
    H94     H    0.47555   0.89029   0.36685   1.000
    H95     H    0.41934   0.97419   0.36685   1.000
    O96     O    0.74993   0.08326   0.09375   1.000
    H97     H    0.69373   0.11401   0.11685   1.000
    H98     H    0.80614   0.11401   0.11685   1.000
    O99     O    0.91634   0.16653   0.15625   1.000
    H100    H    0.97551   0.14027   0.13315   1.000
    H101    H    0.91930   0.22417   0.13315   1.000
    O102    O    0.74993   0.08326   0.40625   1.000
    H103    H    0.75289   0.08455   0.47147   1.000
    H104    H    0.80836   0.11273   0.38723   1.000
    O105    O    0.91634   0.16653   0.34375   1.000
    H106    H    0.91930   0.16525   0.27853   1.000
    H107    H    0.97551   0.13707   0.36277   1.000
    O108    O    0.91634   0.33306   0.09375   1.000
    H109    H    0.91412   0.33498   0.02853   1.000
    H110    H    0.85791   0.36252   0.11277   1.000
    O111    O    0.74993   0.41696   0.15625   1.000
    H112    H    0.74698   0.41504   0.22147   1.000
    H113    H    0.69151   0.38750   0.13723   1.000
    O114    O    0.91634   0.33306   0.40625   1.000
    H115    H    0.91930   0.27605   0.38315   1.000
    H116    H    0.97551   0.35996   0.38315   1.000
    O117    O    0.74993   0.41696   0.34375   1.000
    H118    H    0.69373   0.38622   0.36685   1.000
    H119    H    0.80614   0.38622   0.36685   1.000
    O120    O    0.74993   0.58349   0.09375   1.000
    H121    H    0.75289   0.52585   0.11685   1.000
    H122    H    0.80836   0.60975   0.11685   1.000
    O123    O    0.91634   0.66676   0.15625   1.000
    H124    H    0.91634   0.66932   0.22147   1.000
    H125    H    0.91634   0.72504   0.13723   1.000
    O126    O    0.74993   0.58349   0.40625   1.000
    H127    H    0.74993   0.58093   0.47147   1.000
    H128    H    0.74993   0.52457   0.38723   1.000
    O129    O    0.91634   0.66676   0.34375   1.000
    H130    H    0.85791   0.63986   0.36685   1.000
    H131    H    0.91412   0.72376   0.36685   1.000
    O132    O    0.91634   0.83329   0.09375   1.000
    H133    H    0.91930   0.83457   0.02853   1.000
    H134    H    0.97551   0.86275   0.11277   1.000
    O135    O    0.74993   0.91655   0.15625   1.000
    H136    H    0.75289   0.91527   0.22147   1.000
    H137    H    0.80836   0.88709   0.13723   1.000
    O138    O    0.91634   0.83329   0.40625   1.000
    H139    H    0.91930   0.83457   0.47147   1.000
    H140    H    0.97551   0.86275   0.38723   1.000
    O141    O    0.74993   0.91655   0.34375   1.000
    H142    H    0.69373   0.88581   0.36685   1.000
    H143    H    0.80614   0.88581   0.36685   1.000
    O144    O    0.08357   0.08326   0.59375   1.000
    H145    H    0.08061   0.08455   0.52853   1.000
    H146    H    0.02441   0.11273   0.61277   1.000
    O147    O    0.24998   0.16653   0.65625   1.000
    H148    H    0.19155   0.14027   0.63315   1.000
    H149    H    0.24702   0.22417   0.63315   1.000
    O150    O    0.08357   0.08326   0.90625   1.000
    H151    H    0.08579   0.08455   0.97147   1.000
    H152    H    0.14200   0.11273   0.88723   1.000
    O153    O    0.24998   0.16653   0.84375   1.000
    H154    H    0.24998   0.16909   0.77853   1.000
    H155    H    0.24998   0.22545   0.86277   1.000
    O156    O    0.24998   0.33306   0.59375   1.000
    H157    H    0.25294   0.33498   0.52853   1.000
    H158    H    0.30840   0.36252   0.61277   1.000
    O159    O    0.08357   0.41696   0.65625   1.000
    H160    H    0.02736   0.38622   0.63315   1.000
    H161    H    0.13904   0.38622   0.63315   1.000
    O162    O    0.24998   0.33306   0.90625   1.000
    H163    H    0.24702   0.33498   0.97147   1.000
    H164    H    0.19155   0.36252   0.88723   1.000
    O165    O    0.08357   0.41696   0.84375   1.000
    H166    H    0.08061   0.41504   0.77853   1.000
    H167    H    0.02441   0.38750   0.86277   1.000
    O168    O    0.08357   0.58349   0.59375   1.000
    H169    H    0.08357   0.58093   0.52853   1.000
    H170    H    0.08357   0.52457   0.61277   1.000
    O171    O    0.24998   0.66676   0.65625   1.000
    H172    H    0.19155   0.63986   0.63315   1.000
    H173    H    0.24702   0.72376   0.63315   1.000
    O174    O    0.08357   0.58349   0.90625   1.000
    H175    H    0.02441   0.60975   0.88315   1.000
    H176    H    0.08061   0.52585   0.88315   1.000
    O177    O    0.24998   0.66676   0.84375   1.000
    H178    H    0.24702   0.66548   0.77853   1.000
    H179    H    0.19155   0.63729   0.86277   1.000
    O180    O    0.24998   0.83329   0.59375   1.000
    H181    H    0.25294   0.83457   0.52853   1.000
    H182    H    0.30840   0.86275   0.61277   1.000
    O183    O    0.08357   0.91655   0.65625   1.000
    H184    H    0.02736   0.88581   0.63315   1.000
    H185    H    0.13904   0.88581   0.63315   1.000
    O186    O    0.24998   0.83329   0.90625   1.000
    H187    H    0.19155   0.86019   0.88315   1.000
    H188    H    0.24702   0.77628   0.88315   1.000
    O189    O    0.08357   0.91655   0.84375   1.000
    H190    H    0.08357   0.91911   0.77853   1.000
    H191    H    0.08357   0.97548   0.86277   1.000
    O192    O    0.41638   0.08326   0.59375   1.000
    H193    H    0.35796   0.11017   0.61685   1.000
    H194    H    0.41416   0.02626   0.61685   1.000
    O195    O    0.58353   0.16653   0.65625   1.000
    H196    H    0.58057   0.16525   0.72147   1.000
    H197    H    0.52436   0.13707   0.63723   1.000
    O198    O    0.41638   0.08326   0.90625   1.000
    H199    H    0.36091   0.11401   0.88315   1.000
    H200    H    0.47259   0.11401   0.88315   1.000
    O201    O    0.58353   0.16653   0.84375   1.000
    H202    H    0.64195   0.14027   0.86685   1.000
    H203    H    0.58575   0.22417   0.86685   1.000
    O204    O    0.58353   0.33306   0.59375   1.000
    H205    H    0.52436   0.35996   0.61685   1.000
    H206    H    0.58057   0.27605   0.61685   1.000
    O207    O    0.41638   0.41696   0.65625   1.000
    H208    H    0.41638   0.41952   0.72147   1.000
    H209    H    0.41638   0.47525   0.63723   1.000
    O210    O    0.58353   0.33306   0.90625   1.000
    H211    H    0.52732   0.36380   0.88315   1.000
    H212    H    0.63900   0.36380   0.88315   1.000
    O213    O    0.41638   0.41696   0.84375   1.000
    H214    H    0.35796   0.39006   0.86685   1.000
    H215    H    0.41416   0.47397   0.86685   1.000
    O216    O    0.41638   0.58349   0.59375   1.000
    H217    H    0.41416   0.58477   0.52853   1.000
    H218    H    0.35796   0.61295   0.61277   1.000
    O219    O    0.58353   0.66676   0.65625   1.000
    H220    H    0.52732   0.63601   0.63315   1.000
    H221    H    0.63900   0.63601   0.63315   1.000
    O222    O    0.41638   0.58349   0.90625   1.000
    H223    H    0.41416   0.58477   0.97147   1.000
    H224    H    0.35796   0.61295   0.88723   1.000
    O225    O    0.58353   0.66676   0.84375   1.000
    H226    H    0.58057   0.66548   0.77853   1.000
    H227    H    0.52436   0.63729   0.86277   1.000
    O228    O    0.58353   0.83329   0.59375   1.000
    H229    H    0.58575   0.77628   0.61685   1.000
    H230    H    0.64195   0.86019   0.61685   1.000
    O231    O    0.41638   0.91655   0.65625   1.000
    H232    H    0.41934   0.91527   0.72147   1.000
    H233    H    0.47555   0.88709   0.63723   1.000
    O234    O    0.58353   0.83329   0.90625   1.000
    H235    H    0.58353   0.83072   0.97147   1.000
    H236    H    0.58353   0.77500   0.88723   1.000
    O237    O    0.41638   0.91655   0.84375   1.000
    H238    H    0.36091   0.88581   0.86685   1.000
    H239    H    0.47259   0.88581   0.86685   1.000
    O240    O    0.74993   0.08326   0.59375   1.000
    H241    H    0.69151   0.11017   0.61685   1.000
    H242    H    0.74698   0.02626   0.61685   1.000
    O243    O    0.91634   0.16653   0.65625   1.000
    H244    H    0.91412   0.16525   0.72147   1.000
    H245    H    0.85791   0.13707   0.63723   1.000
    O246    O    0.74993   0.08326   0.90625   1.000
    H247    H    0.74993   0.08070   0.97147   1.000
    H248    H    0.74993   0.02498   0.88723   1.000
    O249    O    0.91634   0.16653   0.84375   1.000
    H250    H    0.86087   0.13579   0.86685   1.000
    H251    H    0.97255   0.13579   0.86685   1.000
    O252    O    0.91634   0.33306   0.59375   1.000
    H253    H    0.91634   0.33050   0.52853   1.000
    H254    H    0.91634   0.27477   0.61277   1.000
    O255    O    0.74993   0.41696   0.65625   1.000
    H256    H    0.69373   0.38622   0.63315   1.000
    H257    H    0.80614   0.38622   0.63315   1.000
    O258    O    0.91634   0.33306   0.90625   1.000
    H259    H    0.85791   0.35996   0.88315   1.000
    H260    H    0.91412   0.27605   0.88315   1.000
    O261    O    0.74993   0.41696   0.84375   1.000
    H262    H    0.74993   0.41952   0.77853   1.000
    H263    H    0.74993   0.47525   0.86277   1.000
    O264    O    0.74993   0.58349   0.59375   1.000
    H265    H    0.75289   0.52585   0.61685   1.000
    H266    H    0.80836   0.60975   0.61685   1.000
    O267    O    0.91634   0.66676   0.65625   1.000
    H268    H    0.91930   0.66548   0.72147   1.000
    H269    H    0.97551   0.63729   0.63723   1.000
    O270    O    0.74993   0.58349   0.90625   1.000
    H271    H    0.74698   0.58477   0.97147   1.000
    H272    H    0.69151   0.61295   0.88723   1.000
    O273    O    0.91634   0.66676   0.84375   1.000
    H274    H    0.85791   0.63986   0.86685   1.000
    H275    H    0.91412   0.72376   0.86685   1.000
    O276    O    0.91634   0.83329   0.59375   1.000
    H277    H    0.85791   0.86019   0.61685   1.000
    H278    H    0.91412   0.77628   0.61685   1.000
    O279    O    0.74993   0.91655   0.65625   1.000
    H280    H    0.74993   0.91911   0.72147   1.000
    H281    H    0.74993   0.97548   0.63723   1.000
    O282    O    0.91634   0.83329   0.90625   1.000
    H283    H    0.86087   0.86403   0.88315   1.000
    H284    H    0.97255   0.86403   0.88315   1.000
    O285    O    0.74993   0.91655   0.84375   1.000
    H286    H    0.69151   0.89029   0.86685   1.000
    H287    H    0.74698   0.97419   0.86685   1.000
